<?xml version="1.0" encoding="UTF-8"?>

<!-- generated on Fri May 14 19:56:11 2021 by Eclipse SUMO duarouter Version 1.1.0
<configuration xmlns:xsi="http://www.w3.org/2001/XMLSchema-instance" xsi:noNamespaceSchemaLocation="http://sumo.dlr.de/xsd/duarouterConfiguration.xsd">

    <input>
        <net-file value="map.net.xml"/>
        <route-files value="passenger_trips.xml"/>
    </input>

    <output>
        <output-file value="passenger_routes.rou.xml"/>
        <alternatives-output value="passenger_routes.rou.alt.xml"/>
    </output>

    <time>
        <begin value="0.0"/>
        <end value="1.0"/>
    </time>

    <report>
        <no-warnings value="true"/>
        <ignore-errors value="true"/>
        <no-step-log value="true"/>
    </report>

</configuration>
-->

<routes xmlns:xsi="http://www.w3.org/2001/XMLSchema-instance" xsi:noNamespaceSchemaLocation="http://sumo.dlr.de/xsd/routes_file.xsd">
    <vType id="delivery" vClass="delivery"/>
    <vehicle id="cargo0" type="delivery" depart="0.00">
        <route edges="C2C1 C1B1 B1A1 A1A0 A0B0  B0C0  C0C1 C1C2 C2B2 B2C2"/>
        <stop parkingArea="ParkAreaA" duration="20"/>
    </vehicle>
<!--    <vehicle id="cargo1" type="delivery" depart="0.00">
        <route edges="C2C1 C1B1"/>
    <stop parkingArea="ParkAreaA" duration="20"/>
    </vehicle>
    <vehicle id="cargo2" type="delivery" depart="0.00">
        <route edges="C2C1 C1B1"/>
    <stop parkingArea="ParkAreaA" duration="20"/>
    </vehicle>
    <vehicle id="cargo3" type="delivery" depart="0.00">
        <route edges="C2C1 C1B1"/>
    <stop parkingArea="ParkAreaA" duration="20"/>
    </vehicle>
    <vehicle id="cargo4" type="delivery" depart="0.00">
        <route edges="C2C1 C1B1"/>
    <stop parkingArea="ParkAreaA" duration="20"/>
    </vehicle> -->
</routes>
